[TITLE]
;;Project Title/Notes

[OPTIONS]
;;Option             Value
FLOW_UNITS           LPS
INFILTRATION         HORTON
FLOW_ROUTING         DYNWAVE
LINK_OFFSETS         DEPTH
MIN_SLOPE            0
ALLOW_PONDING        NO
SKIP_STEADY_STATE    NO

START_DATE           08/23/2013
START_TIME           00:00:00
REPORT_START_DATE    08/23/2013
REPORT_START_TIME    00:00:00
END_DATE             08/23/2013
END_TIME             05:00:00
SWEEP_START          01/01
SWEEP_END            12/31
DRY_DAYS             0
REPORT_STEP          00:05:00
WET_STEP             00:05:00
DRY_STEP             01:00:00
ROUTING_STEP         0:00:30 

INERTIAL_DAMPING     PARTIAL
NORMAL_FLOW_LIMITED  BOTH
FORCE_MAIN_EQUATION  D-W
VARIABLE_STEP        0.75
LENGTHENING_STEP     0
MIN_SURFAREA         1.14
MAX_TRIALS           8
HEAD_TOLERANCE       0.0015
SYS_FLOW_TOL         5
LAT_FLOW_TOL         5

[EVAPORATION]
;;Evap Data      Parameters
;;-------------- ----------------
CONSTANT         0
DRY_ONLY         NO

[RAINGAGES]
;;Gage           Format    Interval SCF      Source    
;;-------------- --------- ------ ------ ----------
P-1              CUMULATIVE 0:05     1.0      TIMESERIES 08/08/14        

[SUBCATCHMENTS]
;;Subcatchment   Rain Gage        Outlet           Area     %Imperv  Width    %Slope   CurbLen  Snow Pack       
;;-------------- ---------------- ---------------- -------- -------- -------- -------- -------- ----------------
C-2              P-1              PMI92799         4        25       500      0.5      0                        
C-3              P-1              PMP92925         6        25       500      0.5      0                        
C-4              P-1              PMI92733         1.3      25       500      0.5      0                        
C-5              P-1              PMI92761         1.3      25       500      0.5      0                        
C-6              P-1              PMI92762         1.3      25       500      0.5      0                        
C-7              P-1              PMI92760         1.5      25       500      0.5      0                        
C-8              P-1              PMI92770         2        25       500      0.5      0                        
C-9              P-1              PMP93136         2.5      25       500      0.5      0                        
C-10             P-1              PMP62782         2.1      25       500      0.5      0                        
C-11             P-1              PMI92736         1.8      25       500      0.5      0                        
C-12             P-1              PMI92783         1.8      25       500      0.5      0                        
C-13             P-1              PMI92768         1.5      25       500      0.5      0                        
C-14             P-1              PMI92765         1.3      25       500      0.5      0                        
C-15             P-1              PMI92759         1.7      25       500      0.5      0                        
C-16             P-1              PMP108536        0.3      25       500      0.5      0                        
C-17             P-1              PMI92796         0.8      25       500      0.5      0                        
C-18             P-1              PMI92782         1.2      25       500      0.5      0                        
C-19             P-1              PMI92754         1.4      25       500      0.5      0                        
C-20             P-1              PMI92751         1.4      25       500      0.5      0                        
C-21             P-1              PMI92734         0.3      25       500      0.5      0                        
C-22             P-1              PMI92792         1.2      25       500      0.5      0                        
C-23             P-1              PMI92786         1.5      25       500      0.5      0                        
C-24             P-1              PMI92735         1.5      25       500      0.5      0                        
C-25             P-1              PMI92812         1.2      25       500      0.5      0                        
C-26             P-1              PMI92763         1.5      25       500      0.5      0                        
C-27             P-1              PMP106155        1.5      25       500      0.5      0                        
C-28             P-1              PMI92772         1.5      25       500      0.5      0                        
C-29             P-1              PMI92766         1.8      25       500      0.5      0                        
C-30             P-1              PMI92748         1.8      25       500      0.5      0                        
C-31             P-1              PMI92775         0.3      25       500      0.5      0                        
C-36             P-1              PMI92740         1.2      25       500      0.5      0                        
C-37             P-1              PMP93121         0.5      25       500      0.5      0                        
C-38             P-1              PMI92789         0.8      25       500      0.5      0                        
C-40             P-1              PMP92830         0.9      25       500      0.5      0                        
C-41             P-1              PMI92776         0.5      25       500      0.5      0                        
C-42             P-1              PMI92794         0.5      25       500      0.5      0                        
C-43             P-1              PMI92778         0.5      25       500      0.5      0                        
C-44             P-1              PMI92755         0.6      25       500      0.5      0                        
C-45             P-1              PMI92737         0.6      25       500      0.5      0                        
C-46             P-1              PMI92729         0.9      25       500      0.5      0                        
C-47             P-1              PMI92767         0.8      25       500      0.5      0                        
C-48             P-1              PMI92743         0.5      25       500      0.5      0                        
C-49             P-1              PMP92850         1.2      25       500      0.5      0                        
C-50             P-1              PMI92731         1        25       500      0.5      0                        
C-51             P-1              PMI92730         0.9      25       500      0.5      0                        
C-52             P-1              PMP92923         1.2      25       500      0.5      0                        
C-53             P-1              PMI92785         1        25       500      0.5      0                        
C-54             P-1              PMI92747         1        25       500      0.5      0                        
C-55             P-1              PMI92791         2        25       500      0.5      0                        
C-56             P-1              PMI92774         0.6      25       500      0.5      0                        
C-57             P-1              PMP93182         1.4      25       500      0.5      0                        
C-58             P-1              PMI92764         1.1      25       500      0.5      0                        
C-59             P-1              PMI92804         1.5      25       500      0.5      0                        
C-60             P-1              PMP93186         1.1      25       500      0.5      0                        
C-61             P-1              PMI92788         1.9      25       500      0.5      0                        
C-62             P-1              PMI92793         0.9      25       500      0.5      0                        
C-63             P-1              PMI92809         0.9      25       500      0.5      0                        
C-65             P-1              PMI92745         0.8      25       500      0.5      0                        
C-66             P-1              PMI92781         0.7      25       500      0.5      0                        
C-67             P-1              PMP92862         0.4      25       500      0.5      0                        
C-68             P-1              PMP92959         0.5      25       500      0.5      0                        
C-69             P-1              PMP92930         0.8      25       500      0.5      0                        
C-70             P-1              PMP92884         1        25       500      0.5      0                        
C-71             P-1              PMI92732         1.5      25       500      0.5      0                        

[SUBAREAS]
;;Subcatchment   N-Imperv   N-Perv     S-Imperv   S-Perv     PctZero    RouteTo    PctRouted 
;;-------------- ---------- ---------- ---------- ---------- ---------- ---------- ----------
C-2              0.01       0.1        0.05       0.05       25         OUTLET    
C-3              0.01       0.1        0.05       0.05       25         OUTLET    
C-4              0.01       0.1        0.05       0.05       25         OUTLET    
C-5              0.01       0.1        0.05       0.05       25         OUTLET    
C-6              0.01       0.1        0.05       0.05       25         OUTLET    
C-7              0.01       0.1        0.05       0.05       25         OUTLET    
C-8              0.01       0.1        0.05       0.05       25         OUTLET    
C-9              0.01       0.1        0.05       0.05       25         OUTLET    
C-10             0.01       0.1        0.05       0.05       25         OUTLET    
C-11             0.01       0.1        0.05       0.05       25         OUTLET    
C-12             0.01       0.1        0.05       0.05       25         OUTLET    
C-13             0.01       0.1        0.05       0.05       25         OUTLET    
C-14             0.01       0.1        0.05       0.05       25         OUTLET    
C-15             0.01       0.1        0.05       0.05       25         OUTLET    
C-16             0.01       0.1        0.05       0.05       25         OUTLET    
C-17             0.01       0.1        0.05       0.05       25         OUTLET    
C-18             0.01       0.1        0.05       0.05       25         OUTLET    
C-19             0.01       0.1        0.05       0.05       25         OUTLET    
C-20             0.01       0.1        0.05       0.05       25         OUTLET    
C-21             0.01       0.1        0.05       0.05       25         OUTLET    
C-22             0.01       0.1        0.05       0.05       25         OUTLET    
C-23             0.01       0.1        0.05       0.05       25         OUTLET    
C-24             0.01       0.1        0.05       0.05       25         OUTLET    
C-25             0.01       0.1        0.05       0.05       25         OUTLET    
C-26             0.01       0.1        0.05       0.05       25         OUTLET    
C-27             0.01       0.1        0.05       0.05       25         OUTLET    
C-28             0.01       0.1        0.05       0.05       25         OUTLET    
C-29             0.01       0.1        0.05       0.05       25         OUTLET    
C-30             0.01       0.1        0.05       0.05       25         OUTLET    
C-31             0.01       0.1        0.05       0.05       25         OUTLET    
C-36             0.01       0.1        0.05       0.05       25         OUTLET    
C-37             0.01       0.1        0.05       0.05       25         OUTLET    
C-38             0.01       0.1        0.05       0.05       25         OUTLET    
C-40             0.01       0.1        0.05       0.05       25         OUTLET    
C-41             0.01       0.1        0.05       0.05       25         OUTLET    
C-42             0.01       0.1        0.05       0.05       25         OUTLET    
C-43             0.01       0.1        0.05       0.05       25         OUTLET    
C-44             0.01       0.1        0.05       0.05       25         OUTLET    
C-45             0.01       0.1        0.05       0.05       25         OUTLET    
C-46             0.01       0.1        0.05       0.05       25         OUTLET    
C-47             0.01       0.1        0.05       0.05       25         OUTLET    
C-48             0.01       0.1        0.05       0.05       25         OUTLET    
C-49             0.01       0.1        0.05       0.05       25         OUTLET    
C-50             0.01       0.1        0.05       0.05       25         OUTLET    
C-51             0.01       0.1        0.05       0.05       25         OUTLET    
C-52             0.01       0.1        0.05       0.05       25         OUTLET    
C-53             0.01       0.1        0.05       0.05       25         OUTLET    
C-54             0.01       0.1        0.05       0.05       25         OUTLET    
C-55             0.01       0.1        0.05       0.05       25         OUTLET    
C-56             0.01       0.1        0.05       0.05       25         OUTLET    
C-57             0.01       0.1        0.05       0.05       25         OUTLET    
C-58             0.01       0.1        0.05       0.05       25         OUTLET    
C-59             0.01       0.1        0.05       0.05       25         OUTLET    
C-60             0.01       0.1        0.05       0.05       25         OUTLET    
C-61             0.01       0.1        0.05       0.05       25         OUTLET    
C-62             0.01       0.1        0.05       0.05       25         OUTLET    
C-63             0.01       0.1        0.05       0.05       25         OUTLET    
C-65             0.01       0.1        0.05       0.05       25         OUTLET    
C-66             0.01       0.1        0.05       0.05       25         OUTLET    
C-67             0.01       0.1        0.05       0.05       25         OUTLET    
C-68             0.01       0.1        0.05       0.05       25         OUTLET    
C-69             0.01       0.1        0.05       0.05       25         OUTLET    
C-70             0.01       0.1        0.05       0.05       25         OUTLET    
C-71             0.01       0.1        0.05       0.05       25         OUTLET    

[INFILTRATION]
;;Subcatchment   MaxRate    MinRate    Decay      DryTime    MaxInfil  
;;-------------- ---------- ---------- ---------- ---------- ----------
C-2              3.0        0.5        4          7          0         
C-3              3.0        0.5        4          7          0         
C-4              3.0        0.5        4          7          0         
C-5              3.0        0.5        4          7          0         
C-6              3.0        0.5        4          7          0         
C-7              3.0        0.5        4          7          0         
C-8              3.0        0.5        4          7          0         
C-9              3.0        0.5        4          7          0         
C-10             3.0        0.5        4          7          0         
C-11             3.0        0.5        4          7          0         
C-12             3.0        0.5        4          7          0         
C-13             3.0        0.5        4          7          0         
C-14             3.0        0.5        4          7          0         
C-15             3.0        0.5        4          7          0         
C-16             3.0        0.5        4          7          0         
C-17             3.0        0.5        4          7          0         
C-18             3.0        0.5        4          7          0         
C-19             3.0        0.5        4          7          0         
C-20             3.0        0.5        4          7          0         
C-21             3.0        0.5        4          7          0         
C-22             3.0        0.5        4          7          0         
C-23             3.0        0.5        4          7          0         
C-24             3.0        0.5        4          7          0         
C-25             3.0        0.5        4          7          0         
C-26             3.0        0.5        4          7          0         
C-27             3.0        0.5        4          7          0         
C-28             3.0        0.5        4          7          0         
C-29             3.0        0.5        4          7          0         
C-30             3.0        0.5        4          7          0         
C-31             3.0        0.5        4          7          0         
C-36             3.0        0.5        4          7          0         
C-37             3.0        0.5        4          7          0         
C-38             3.0        0.5        4          7          0         
C-40             3.0        0.5        4          7          0         
C-41             3.0        0.5        4          7          0         
C-42             3.0        0.5        4          7          0         
C-43             3.0        0.5        4          7          0         
C-44             3.0        0.5        4          7          0         
C-45             3.0        0.5        4          7          0         
C-46             3.0        0.5        4          7          0         
C-47             3.0        0.5        4          7          0         
C-48             3.0        0.5        4          7          0         
C-49             3.0        0.5        4          7          0         
C-50             3.0        0.5        4          7          0         
C-51             3.0        0.5        4          7          0         
C-52             3.0        0.5        4          7          0         
C-53             3.0        0.5        4          7          0         
C-54             3.0        0.5        4          7          0         
C-55             3.0        0.5        4          7          0         
C-56             3.0        0.5        4          7          0         
C-57             3.0        0.5        4          7          0         
C-58             3.0        0.5        4          7          0         
C-59             3.0        0.5        4          7          0         
C-60             3.0        0.5        4          7          0         
C-61             3.0        0.5        4          7          0         
C-62             3.0        0.5        4          7          0         
C-63             3.0        0.5        4          7          0         
C-65             3.0        0.5        4          7          0         
C-66             3.0        0.5        4          7          0         
C-67             3.0        0.5        4          7          0         
C-68             3.0        0.5        4          7          0         
C-69             3.0        0.5        4          7          0         
C-70             3.0        0.5        4          7          0         
C-71             3.0        0.5        4          7          0         

[JUNCTIONS]
;;Junction       Invert     Dmax       Dinit      Dsurch     Aponded   
;;-------------- ---------- ---------- ---------- ---------- ----------
CRE01            2547.28356 2.67643655 0          0          0         
CRE02            2547.92326 2.86674084 0          0          0         
CRE03            2548.75553 2.36446549 0          0          0         
CRE04            2548.7695  2.41050033 0          0          0         
CRE05            2549.0801  2.59990113 0          0          0         
CRE06            2569.793   3.325      0          0          0         
CRE07            2548.347799 3.47220055 0          0          0         
CRE08            2556.751   4.099      0          0          0         
CRE09            2587.546   2.6        0          0          0         
PMC98455         2554.364916 2.880141   0          0          0         
PMC98457         2553.997298 2.948691   0          0          0         
PMC98478         2549.672617 1.595055   0          0          0         
PMCI106387       2558.41    1.5        0          0          0         
PMCI106387GB22   2558.41    1.5        0          0          0         
PMI105964        2548.28    0.98       0          0          0         
PMI105971        2548.58    1.33       0          0          0         
PMI106004        2549.46    1.77       0          0          0         
PMI106007        2549.02    1.47       0          0          0         
PMI106008        2549       1.88       0          0          0         
PMI60590         2546.8     2.2        0          0          0         
PMI92722         2578.573   5.6        0          0          0         
PMI92729         2554.013   0.915      0          0          0         
PMI92730         2556.285   1.31       0          0          0         
PMI92731         2555.435   1.32       0          0          0         
PMI92732         2563.946   2.9        0          0          0         
PMI92733         2550.99    1.54       0          0          0         
PMI92734         2555.972   2.736      0          0          0         
PMI92735         2563.671   2.45       0          0          0         
PMI92736         2552.882   1.38       0          0          0         
PMI92737         2553.603   0.78       0          0          0         
PMI92738         2551.434   1.3        0          0          0         
PMI92739         2554.818   1.28       0          0          0         
PMI92740         2550.957   1.2        0          0          0         
PMI92741         2553.593   2.1        0          0          0         
PMI92742         2549.972   1.49       0          0          0         
PMI92743         2554.388   1.457      0          0          0         
PMI92744         2580.814   0.409      0          0          0         
PMI92745         2556.603   1.29       0          0          0         
PMI92747         2577.052   5.35       0          0          0         
PMI92748         2571.97    1.48       0          0          0         
PMI92749         2552.929   1.185      0          0          0         
PMI92750         2552.561   1.53       0          0          0         
PMI92751         2554.358   0.87       0          0          0         
PMI92752         2554.527   1.16       0          0          0         
PMI92753         2557.311   1.774      0          0          0         
PMI92754         2555.038   1.38       0          0          0         
PMI92755         2553.645   0.9        0          0          0         
PMI92756         2568.847   2.0608682  0          0          0         
PMI92757         2554.963   1.355      0          0          0         
PMI92758         2551.795   0.94       0          0          0         
PMI92759         2553.555   1.1        0          0          0         
PMI92760         2550.02    1.47       0          0          0         
PMI92761         2551.46    1.73       0          0          0         
PMI92762         2552.1     1.58       0          0          0         
PMI92763         2554.63    2.415      0          0          0         
PMI92764         2575.26    2.0608682  0          0          0         
PMI92765         2552.355   1.21       0          0          0         
PMI92766         2569.214   1.53       0          0          0         
PMI92767         2555.841   0.772      0          0          0         
PMI92768         2552.045   0.92       0          0          0         
PMI92770         2550.63    1.63       0          0          0         
PMI92771         2568.255   1.3        0          0          0         
PMI92772         2559.165   2.91       0          0          0         
PMI92773         2560.454   0.87       0          0          0         
PMI92774         2575.588   1.245      0          0          0         
PMI92775         2572.072   1.895      0          0          0         
PMI92776         2551.08    1.46       0          0          0         
PMI92777         2555.854   0.81       0          0          0         
PMI92778         2553.159   1.13       0          0          0         
PMI92779         2556.51    0.504      0          0          0         
PMI92780         2556.743   1.26       0          0          0         
PMI92781         2558.308   1.38       0          0          0         
PMI92782         2553.31    2.1        0          0          0         
PMI92783         2556.365   1.338      0          0          0         
PMI92784         2569.149   0.635      0          0          0         
PMI92785         2560.921   1.318      0          0          0         
PMI92786         2560.655   1.315      0          0          0         
PMI92787         2575.798   1.345      0          0          0         
PMI92788         2552.229   1.56       0          0          0         
PMI92789         2552.72    1.21       0          0          0         
PMI92790         2580.68    0.8        0          0          0         
PMI92791         2572.907   2.235      0          0          0         
PMI92792         2556.615   3.348      0          0          0         
PMI92793         2554.42    0.92       0          0          0         
PMI92794         2550.703   1.17       0          0          0         
PMI92795         2563.355   1.645      0          0          0         
PMI92796         2555.204   1.09       0          0          0         
PMI92797         2567.9     2.4        0          0          0         
PMI92799         2551.71    1.05       0          0          0         
PMI92800         2551.416   2.26       0          0          0         
PMI92801         2552.35    0.77       0          0          0         
PMI92802         2552.232   1.16       0          0          0         
PMI92803         2551.03    1.36       0          0          0         
PMI92804         2551.835   1.205      0          0          0         
PMI92806         2554.292   1.03       0          0          0         
PMI92807         2554.441   0.805      0          0          0         
PMI92808         2558.469   1.55       0          0          0         
PMI92809         2556.097   0.715      0          0          0         
PMI92810         2553.156   1.162      0          0          0         
PMI92811         2553.504   0.7        0          0          0         
PMI92812         2553.949   1.19       0          0          0         
PMI92813         2585.935   1.4        0          0          0         
PMI92819         2550.112   1.55       0          0          0         
PMP105957        2547.94    1.62       0          0          0         
PMP105960        2547.81    2.18       0          0          0         
PMP105962        2547.45    2.23       0          0          0         
PMP105968        2547.48    2.61       0          0          0         
PMP105970        2547.321   2.679      0          0          0         
PMP105972        2549.34    1.76       0          0          0         
PMP106006        2548.017631 2.14236921 0          0          0         
PMP106064        2547.69    2.53       0          0          0         
PMP106065        2547.63    2.49       0          0          0         
PMP106066        2547.74    2.46       0          0          0         
PMP106067        2547.75    2.45       0          0          0         
PMP106068        2547.83    2          0          0          0         
PMP106069        2548.93    1.92       0          0          0         
PMP106070        2547.87    2.16       0          0          0         
PMP106071        2547.94    2.19       0          0          0         
PMP106072        2547.92    2.18       0          0          0         
PMP106073        2547.95    2.71       0          0          0         
PMP106074        2548.37    1.96       0          0          0         
PMP106075        2548.44    1.9        0          0          0         
PMP106076        2548.179   2.101      0          0          0         
PMP106077        2548.08    1.96       0          0          0         
PMP106078        2548.82    1.93       0          0          0         
PMP106081        2548.22    2.01       0          0          0         
PMP106082        2548.18    4.422      0          0          0         
PMP106083        2548.65    1.74       0          0          0         
PMP106084        2548.82    2.46       0          0          0         
PMP106085        2548.74    1.93       0          0          0         
PMP106086        2548.749   2.461      0          0          0         
PMP106087        2548.63    2.04       0          0          0         
PMP106155        2559       0.91       0          0          0         
PMP106384        2556.495   3.485      0          0          0         
PMP106385        2558.65    1.11       0          0          0         
PMP106386        2558.6     1.18       0          0          0         
PMP108534        2556.626   1.534      0          0          0         
PMP108535        2557.18    1.22       0          0          0         
PMP108536        2557.29    1.18       0          0          0         
PMP108537        2556.6     1.17       0          0          0         
PMP108538        2556.43    1.46       0          0          0         
PMP115623        2551.84    1.09       0          0          0         
PMP115624        2552.11    0.95       0          0          0         
PMP60972         2549.8     2.2        0          0          0         
PMP62782         2549.8     2.2        0          0          0         
PMP63233         2549.8     2.2        0          0          0         
PMP63245         2546.8     2.2        0          0          0         
PMP63246         2546.8     2.2        0          0          0         
PMP63313         2553.8     2.2        0          0          0         
PMP63314         2553.8     2.2        0          0          0         
PMP63315         2553.8     2.2        0          0          0         